9
Ethanol
C   -0.6292180   -1.0466523   -0.0923913
C    0.3526619   -0.0138515    0.4458524
O    0.2525228    1.1810742   -0.2794685
H   -0.5541503   -1.9807048    0.5032583
H   -0.3965091   -1.2772718   -1.1535381
H   -1.6668958   -0.6568917   -0.0230614
H    1.3937852   -0.4075363    0.4075996
H    0.1174491    0.1968414    1.5104325
H    0.7454751    1.0399922   -1.1297094